Circuit: * D:\pcbs\Tfac_AlarmCheck\ltspice\NE555_Astable_01.asc

WARNING: Less than two connections to node NC_02.  This node is used by S:U1:1.
Direct Newton iteration for .op point succeeded.
Heightened Def Con from 8.33963e-006 +++++++++++++++++++++++to 8.33976e-006
Heightened Def Con from 9.63551e-006 +++++++++++++++to 9.63651e-006
Heightened Def Con from 9.66651e-006 ++++++++++++++to 9.66751e-006

Date: Tue May 24 19:48:37 2016
Total elapsed time: 1.369 seconds.

tnom = 27
temp = 27
method = modified trap
totiter = 1114649
traniter = 1114644
tranpoints = 262040
accept = 213618
rejected = 48477
matrix size = 15
fillins = 0
solver = Normal
Matrix Compiler1: 398 bytes object code size  0.1/0.1/[0.0]
Matrix Compiler2: off  [0.1]/0.1/0.1


